
 Fire Dynamics Simulator

 Current Date     : October 25, 2020  23:39:35
 Revision         : FDS6.7.5-318-gac3275a6c-master
 Revision Date    : Fri Oct 16 13:16:15 2020 -0400
 Compiler         : Gnu gfortran 10.2.0
 Compilation Date : Oct 17, 2020  00:20:10

 MPI Enabled;    Number of MPI Processes:       1
 OpenMP Enabled; Number of OpenMP Threads:      2

 MPI version: 3.1
 MPI library version: Open MPI v4.0.5, package: Open MPI builduser@anthraxx-slave-4 Distribution, ident: 4.0.5, repo rev: v4.0.5, Aug 26, 2020

 Job TITLE        : Example of a particle spray resulting from an impact
 Job ID string    : impact


 Grid Dimensions, Mesh     1

   Cells in the X Direction            20
   Cells in the Y Direction            90
   Cells in the Z Direction            65
   Number of Grid Cells            117000


 Physical Dimensions, Mesh     1

   Length (m)                       2.000
   Width  (m)                       9.000
   Height (m)                       6.500
   Initial Time Step (s)            0.062

Total Number of Grid Cells        117000


 Miscellaneous Parameters

   Simulation Start Time (s)          0.0
   Simulation End Time (s)            0.5
   LES Calculation
   Eddy Viscosity:           Deardorff Model (C_DEARDORFF = 0.10)
   Near-wall Eddy Viscosity: Smagorinsky with Van Driest damping (C_SMAGORINSKY = 0.20)
   Turbulent Prandtl Number:         0.50
   Turbulent Schmidt Number:         0.50
   Ambient Temperature (C):         20.00


 Mass Fraction Transformation Matrix to Convert Species Mixtures (Columns) to Primitive Species (Rows)

                         AIR       WATER VA
   NITROGEN              0.762470  0.000000
   OXYGEN                0.230997  0.000000
   CARBON DIOXIDE        0.000591  0.000000
   WATER VAPOR           0.005941  1.000000


 Primitive Species Information

   NITROGEN
   Gas Species
   Molecular Weight (g/mol)            28.01340
   Ambient Density (kg/m^3)            1.165
   Enthalpy of Formation (J/kg)        0.00E+00

   OXYGEN
   Gas Species
   Molecular Weight (g/mol)            31.99880
   Ambient Density (kg/m^3)            1.330
   Enthalpy of Formation (J/kg)        0.00E+00

   CARBON DIOXIDE
   Gas Species
   Molecular Weight (g/mol)            44.00950
   Ambient Density (kg/m^3)            1.830
   Enthalpy of Formation (J/kg)       -8.94E+06

   WATER VAPOR
   Gas Species
   Molecular Weight (g/mol)            18.01528
   Ambient Density (kg/m^3)            0.749
   Enthalpy of Formation (J/kg)       -1.34E+07


 Tracked (Lumped) Species Information

   AIR
   Molecular Weight (g/mol)            28.75199
   Ambient Density (kg/m^3)            1.195
   Initial Mass Fraction               1.000
   Enthalpy of Formation (J/kg)     -8.50E+04

   Sub Species                    Mass Fraction     Mole Fraction
   NITROGEN                       7.624701E-01      7.825730E-01
   OXYGEN                         2.309974E-01      2.075589E-01
   CARBON DIOXIDE                 5.914651E-04      3.864120E-04
   WATER VAPOR                    5.940984E-03      9.481679E-03
 
     Viscosity (kg/m/s) Ambient,  293 K:  1.80E-05
                                  500 K:  2.61E-05
                                 1000 K:  4.13E-05
                                 1500 K:  5.37E-05
   Therm. Cond. (W/m/K) Ambient,  293 K:  2.56E-02
                                  500 K:  3.81E-02
                                 1000 K:  6.69E-02
                                 1500 K:  9.25E-02
        Enthalpy (J/kg) Ambient,  293 K: -9.01E+04
                                  500 K:  1.22E+05
                                 1000 K:  6.72E+05
                                 1500 K:  1.27E+06
    Spec. Heat (J/kg/K) Ambient,  293 K:  1.02E+03
                                  500 K:  1.04E+03
                                 1000 K:  1.16E+03
                                 1500 K:  1.23E+03
   Diff. Coeff. (m^2/s) Ambient,  293 K:  1.99E-05
                                  500 K:  4.96E-05
                                 1000 K:  1.58E-04
                                 1500 K:  3.09E-04

   WATER VAPOR
   Molecular Weight (g/mol)            18.01528
   Ambient Density (kg/m^3)            0.749
   Initial Mass Fraction               0.000
   Enthalpy of Formation (J/kg)     -1.34E+07

   Sub Species                    Mass Fraction     Mole Fraction
   WATER VAPOR                    1.000000E+00      1.000000E+00
 
     Viscosity (kg/m/s) Ambient,  293 K:  1.05E-05
                                  500 K:  1.77E-05
                                 1000 K:  3.58E-05
                                 1500 K:  5.21E-05
   Therm. Cond. (W/m/K) Ambient,  293 K:  1.96E-02
                                  500 K:  3.46E-02
                                 1000 K:  8.21E-02
                                 1500 K:  1.37E-01
        Enthalpy (J/kg) Ambient,  293 K: -1.34E+07
                                  500 K: -1.30E+07
                                 1000 K: -1.20E+07
                                 1500 K: -1.07E+07
    Spec. Heat (J/kg/K) Ambient,  293 K:  1.86E+03
                                  500 K:  1.96E+03
                                 1000 K:  2.29E+03
                                 1500 K:  2.63E+03
   Diff. Coeff. (m^2/s) Ambient,  293 K:  2.10E-05
                                  500 K:  5.78E-05
                                 1000 K:  1.98E-04
                                 1500 K:  3.95E-04
 
   Liq. Enthalpy (J/kg)     Melt  273 K: -1.60E+07
                                  323 K: -1.58E+07
                            Boil  373 K: -1.56E+07
 
   Liq. Spec. Heat (J/kg/K) Melt  273 K:  4.23E+03
                                  323 K:  4.18E+03
                            Boil  373 K:  4.22E+03
 
   Heat of Vapor. (J/kg)    Melt  273 K:  2.50E+06
                                  323 K:  2.39E+06
                            Boil  373 K:  2.27E+06


 Material Information


 Surface Conditions

   0 INERT (DEFAULT)

   1 OPEN
     Passive Vent to Atmosphere

   2 MIRROR
     Symmetry Plane

   3 INTERPOLATED

   4 PERIODIC

   5 HVAC

   6 MASSLESS TRACER

   7 DROPLET

   8 EVACUATION_OUTFLOW
     Normal Velocity (m/s)         0.000

   9 MASSLESS TARGET

  10 PERIODIC FLOW ONLY


 Device Properties

   1 nozzle
     Flow Rate (L/min)              10.00
     Particle Class              water droplets
     Smokeview ID                nozzle


 Cut-off Density and Temperature

    Minimum Temperature:   -10.0 C
    Maximum Temperature:  2726.8 C
    Minimum Density:  1.195E-01 kg/m3
    Maximum Density:  2.663E+00 kg/m3


 Device Coordinates

     1 Coords:      0.001000      0.000000      0.000000, Make: nozzle, ID: null, Quantity: TIME


 Radiation Model Information

   Number of control angles  104
   Time step increment         3
   Angle increment             5
   Theta band N_phi   Solid angle
     1:        4     0.120
     2:       12     0.114
     3:       16     0.127
     4:       20     0.120
     5:       20     0.120
     6:       16     0.127
     7:       12     0.114
     8:        4     0.120
   Using gray gas absorption.
   Mean beam length  0.100 m



 Run Time Diagnostics

       Time Step       1   October 25, 2020  23:39:37
       Step Size:    0.620E-01 s, Total Time:       0.06 s
       Pressure Iterations:      1
       Maximum Velocity Error:  0.00E+00 on Mesh   1 at (   0   0   0)
       Maximum Pressure Error:  0.46E-04 on Mesh   1 at (  11  38   1)
       ---------------------------------------------------------------
       Max CFL number:  0.62E+00 at (  22,   0,   8)
       Max divergence:  0.13E-05 at (  16,  84,  34)
       Min divergence: -0.13E-05 at (   5,   4,  37)
       Max VN number:   0.97E-02 at (   2,  33,  47)

       Time Step       2   October 25, 2020  23:39:37
       Step Size:    0.620E-01 s, Total Time:       0.12 s
       Pressure Iterations:      1
       Maximum Velocity Error:  0.00E+00 on Mesh   1 at (   0   0   0)
       Maximum Pressure Error:  0.47E-07 on Mesh   1 at (  17  11  65)
       ---------------------------------------------------------------
       Max CFL number:  0.62E+00 at (  22,   0,   8)
       Max divergence:  0.12E-05 at (  16,  84,  34)
       Min divergence: -0.13E-05 at (   5,   4,  37)
       Max VN number:   0.97E-02 at (   2,  33,  47)

       Time Step       3   October 25, 2020  23:39:38
       Step Size:    0.450E-03 s, Total Time:       0.12 s
       Pressure Iterations:      1
       Maximum Velocity Error:  0.00E+00 on Mesh   1 at (   0   0   0)
       Maximum Pressure Error:  0.13E+01 on Mesh   1 at (   1  46  22)
       ---------------------------------------------------------------
       Max CFL number:  0.45E-02 at (  22,   0,   8)
       Max divergence:  0.21E+01 at (   1,  46,  22)
       Min divergence: -0.16E-05 at (   1,  45,  20)
       Max VN number:   0.70E-04 at (   2,  33,  47)
       No. of Lagrangian Particles:           620

       Time Step       4   October 25, 2020  23:39:39
       Step Size:    0.450E-03 s, Total Time:       0.12 s
       Pressure Iterations:      1
       Maximum Velocity Error:  0.00E+00 on Mesh   1 at (   0   0   0)
       Maximum Pressure Error:  0.58E+02 on Mesh   1 at (   1  46  22)
       ---------------------------------------------------------------
       Max CFL number:  0.12E+00 at (   1,  46,  22)
       Max divergence:  0.13E+01 at (   1,  46,  23)
       Min divergence: -0.79E-02 at (   1,  44,  21)
       Max VN number:   0.19E-01 at (   1,  46,  22)
       No. of Lagrangian Particles:           625
       Radiation Loss to Boundaries:         0.004 kW

       Time Step       5   October 25, 2020  23:39:39
       Step Size:    0.450E-03 s, Total Time:       0.13 s
       Pressure Iterations:      1
       Maximum Velocity Error:  0.00E+00 on Mesh   1 at (   0   0   0)
       Maximum Pressure Error:  0.17E+02 on Mesh   1 at (   1  46  23)
       ---------------------------------------------------------------
       Max CFL number:  0.13E+00 at (   1,  46,  23)
       Max divergence:  0.81E+00 at (   1,  48,  22)
       Min divergence: -0.14E-01 at (   1,  46,  22)
       Max VN number:   0.42E-01 at (   1,  46,  22)
       No. of Lagrangian Particles:           630
       Radiation Loss to Boundaries:         0.010 kW

       Time Step       6   October 25, 2020  23:39:40
       Step Size:    0.450E-03 s, Total Time:       0.13 s
       Pressure Iterations:      1
       Maximum Velocity Error:  0.00E+00 on Mesh   1 at (   0   0   0)
       Maximum Pressure Error:  0.71E+01 on Mesh   1 at (   1  47  23)
       ---------------------------------------------------------------
       Max CFL number:  0.12E+00 at (   1,  46,  23)
       Max divergence:  0.63E+00 at (   1,  48,  23)
       Min divergence: -0.92E-02 at (   1,  47,  22)
       Max VN number:   0.45E-01 at (   1,  46,  22)
       No. of Lagrangian Particles:           635
       Radiation Loss to Boundaries:         0.014 kW

       Time Step       7   October 25, 2020  23:39:41
       Step Size:    0.450E-03 s, Total Time:       0.13 s
       Pressure Iterations:      1
       Maximum Velocity Error:  0.00E+00 on Mesh   1 at (   0   0   0)
       Maximum Pressure Error:  0.51E+01 on Mesh   1 at (   1  46  22)
       ---------------------------------------------------------------
       Max CFL number:  0.12E+00 at (   1,  46,  23)
       Max divergence:  0.44E+00 at (   1,  48,  17)
       Min divergence: -0.99E-02 at (   1,  47,  22)
       Max VN number:   0.44E-01 at (   1,  46,  22)
       No. of Lagrangian Particles:           640
       Radiation Loss to Boundaries:         0.011 kW

       Time Step       8   October 25, 2020  23:39:42
       Step Size:    0.450E-03 s, Total Time:       0.13 s
       Pressure Iterations:      1
       Maximum Velocity Error:  0.00E+00 on Mesh   1 at (   0   0   0)
       Maximum Pressure Error:  0.49E+01 on Mesh   1 at (   1  46  23)
       ---------------------------------------------------------------
       Max CFL number:  0.12E+00 at (   1,  46,  23)
       Max divergence:  0.33E+00 at (   1,  46,  16)
       Min divergence: -0.11E-01 at (   1,  46,  23)
       Max VN number:   0.42E-01 at (   1,  46,  22)
       No. of Lagrangian Particles:           645
       Radiation Loss to Boundaries:         0.010 kW

       Time Step       9   October 25, 2020  23:39:42
       Step Size:    0.450E-03 s, Total Time:       0.13 s
       Pressure Iterations:      1
       Maximum Velocity Error:  0.00E+00 on Mesh   1 at (   0   0   0)
       Maximum Pressure Error:  0.86E+01 on Mesh   1 at (   1  46  23)
       ---------------------------------------------------------------
       Max CFL number:  0.12E+00 at (   1,  46,  22)
       Max divergence:  0.24E+00 at (   1,  46,  15)
       Min divergence: -0.91E-02 at (   1,  47,  22)
       Max VN number:   0.41E-01 at (   1,  46,  22)
       No. of Lagrangian Particles:           649
       Radiation Loss to Boundaries:         0.010 kW

       Time Step      10   October 25, 2020  23:39:43
       Step Size:    0.450E-03 s, Total Time:       0.13 s
       Pressure Iterations:      1
       Maximum Velocity Error:  0.00E+00 on Mesh   1 at (   0   0   0)
       Maximum Pressure Error:  0.85E+01 on Mesh   1 at (   1  46  23)
       ---------------------------------------------------------------
       Max CFL number:  0.12E+00 at (   1,  46,  23)
       Max divergence:  0.16E+00 at (   1,  46,  15)
       Min divergence: -0.83E-02 at (   1,  47,  19)
       Max VN number:   0.41E-01 at (   1,  46,  22)
       No. of Lagrangian Particles:           654
       Radiation Loss to Boundaries:         0.008 kW

       Time Step      20   October 25, 2020  23:39:50
       Step Size:    0.495E-03 s, Total Time:       0.13 s
       Pressure Iterations:      1
       Maximum Velocity Error:  0.00E+00 on Mesh   1 at (   0   0   0)
       Maximum Pressure Error:  0.37E+01 on Mesh   1 at (   1  46  17)
       ---------------------------------------------------------------
       Max CFL number:  0.11E+00 at (   1,  46,  22)
       Max divergence:  0.11E+00 at (   2,  42,  24)
       Min divergence: -0.87E-02 at (   1,  44,  17)
       Max VN number:   0.43E-01 at (   1,  44,  22)
       No. of Lagrangian Particles:           701
       Radiation Loss to Boundaries:         0.009 kW

       Time Step      30   October 25, 2020  23:40:00
       Step Size:    0.495E-03 s, Total Time:       0.14 s
       Pressure Iterations:      1
       Maximum Velocity Error:  0.00E+00 on Mesh   1 at (   0   0   0)
       Maximum Pressure Error:  0.32E+01 on Mesh   1 at (   1  47  24)
       ---------------------------------------------------------------
       Max CFL number:  0.97E-01 at (   1,  46,  23)
       Max divergence:  0.60E-01 at (   1,  45,  18)
       Min divergence: -0.10E-01 at (   1,  42,  18)
       Max VN number:   0.35E-01 at (   1,  46,  23)
       No. of Lagrangian Particles:           749
       Radiation Loss to Boundaries:         0.009 kW

       Time Step      40   October 25, 2020  23:40:07
       Step Size:    0.495E-03 s, Total Time:       0.14 s
       Pressure Iterations:      1
       Maximum Velocity Error:  0.00E+00 on Mesh   1 at (   0   0   0)
       Maximum Pressure Error:  0.22E+01 on Mesh   1 at (   1  46  16)
       ---------------------------------------------------------------
       Max CFL number:  0.90E-01 at (   1,  46,  25)
       Max divergence:  0.11E+00 at (   1,  45,  19)
       Min divergence: -0.72E-02 at (   1,  42,  25)
       Max VN number:   0.32E-01 at (   1,  46,  24)
       No. of Lagrangian Particles:           799
       Radiation Loss to Boundaries:         0.012 kW

       Time Step      50   October 25, 2020  23:40:15
       Step Size:    0.495E-03 s, Total Time:       0.15 s
       Pressure Iterations:      1
       Maximum Velocity Error:  0.00E+00 on Mesh   1 at (   0   0   0)
       Maximum Pressure Error:  0.10E+01 on Mesh   1 at (   1  45  16)
       ---------------------------------------------------------------
       Max CFL number:  0.82E-01 at (   1,  46,  24)
       Max divergence:  0.96E-01 at (   1,  48,  21)
       Min divergence: -0.93E-02 at (   2,  43,  16)
       Max VN number:   0.28E-01 at (   1,  48,  21)
       No. of Lagrangian Particles:           845
       Radiation Loss to Boundaries:         0.011 kW

       Time Step      60   October 25, 2020  23:40:26
       Step Size:    0.495E-03 s, Total Time:       0.15 s
       Pressure Iterations:      1
       Maximum Velocity Error:  0.00E+00 on Mesh   1 at (   0   0   0)
       Maximum Pressure Error:  0.12E+01 on Mesh   1 at (   1  46  15)
       ---------------------------------------------------------------
       Max CFL number:  0.82E-01 at (   1,  48,  21)
       Max divergence:  0.74E-01 at (   1,  48,  19)
       Min divergence: -0.10E-01 at (   1,  41,  18)
       Max VN number:   0.29E-01 at (   1,  48,  21)
       No. of Lagrangian Particles:           870
       Radiation Loss to Boundaries:         0.012 kW

       Time Step      70   October 25, 2020  23:40:34
       Step Size:    0.495E-03 s, Total Time:       0.16 s
       Pressure Iterations:      1
       Maximum Velocity Error:  0.00E+00 on Mesh   1 at (   0   0   0)
       Maximum Pressure Error:  0.74E+00 on Mesh   1 at (   1  44  16)
       ---------------------------------------------------------------
       Max CFL number:  0.86E-01 at (   1,  48,  21)
       Max divergence:  0.76E-01 at (   1,  47,  20)
       Min divergence: -0.12E-01 at (   2,  43,  16)
       Max VN number:   0.29E-01 at (   1,  48,  21)
       No. of Lagrangian Particles:           906
       Radiation Loss to Boundaries:         0.013 kW

       Time Step      80   October 25, 2020  23:40:41
       Step Size:    0.495E-03 s, Total Time:       0.16 s
       Pressure Iterations:      1
       Maximum Velocity Error:  0.00E+00 on Mesh   1 at (   0   0   0)
       Maximum Pressure Error:  0.73E+00 on Mesh   1 at (   1  46  17)
       ---------------------------------------------------------------
       Max CFL number:  0.77E-01 at (   1,  48,  21)
       Max divergence:  0.11E+00 at (   1,  46,  19)
       Min divergence: -0.11E-01 at (   2,  48,  26)
       Max VN number:   0.28E-01 at (   1,  49,  21)
       No. of Lagrangian Particles:           944
       Radiation Loss to Boundaries:         0.014 kW

       Time Step      90   October 25, 2020  23:40:49
       Step Size:    0.495E-03 s, Total Time:       0.17 s
       Pressure Iterations:      1
       Maximum Velocity Error:  0.00E+00 on Mesh   1 at (   0   0   0)
       Maximum Pressure Error:  0.68E+00 on Mesh   1 at (   1  51  19)
       ---------------------------------------------------------------
       Max CFL number:  0.81E-01 at (   1,  49,  21)
       Max divergence:  0.56E-01 at (   3,  47,  15)
       Min divergence: -0.11E-01 at (   2,  48,  27)
       Max VN number:   0.27E-01 at (   1,  44,  21)
       No. of Lagrangian Particles:           983
       Radiation Loss to Boundaries:         0.015 kW

       Time Step     100   October 25, 2020  23:40:57
       Step Size:    0.495E-03 s, Total Time:       0.17 s
       Pressure Iterations:      1
       Maximum Velocity Error:  0.00E+00 on Mesh   1 at (   0   0   0)
       Maximum Pressure Error:  0.59E+00 on Mesh   1 at (   1  49  19)
       ---------------------------------------------------------------
       Max CFL number:  0.77E-01 at (   1,  49,  21)
       Max divergence:  0.84E-01 at (   1,  49,  21)
       Min divergence: -0.98E-02 at (   1,  48,  14)
       Max VN number:   0.26E-01 at (   1,  50,  21)
       No. of Lagrangian Particles:          1024
       Radiation Loss to Boundaries:         0.016 kW

       Time Step     200   October 25, 2020  23:42:21
       Step Size:    0.495E-03 s, Total Time:       0.22 s
       Pressure Iterations:      1
       Maximum Velocity Error:  0.00E+00 on Mesh   1 at (   0   0   0)
       Maximum Pressure Error:  0.55E+00 on Mesh   1 at (   1  45  27)
       ---------------------------------------------------------------
       Max CFL number:  0.76E-01 at (   1,  53,  22)
       Max divergence:  0.70E-01 at (   2,  46,  26)
       Min divergence: -0.12E-01 at (   3,  48,  28)
       Max VN number:   0.27E-01 at (   1,  46,  22)
       No. of Lagrangian Particles:          1425
       Radiation Loss to Boundaries:         0.024 kW

       Time Step     300   October 25, 2020  23:43:45
       Step Size:    0.495E-03 s, Total Time:       0.27 s
       Pressure Iterations:      1
       Maximum Velocity Error:  0.00E+00 on Mesh   1 at (   0   0   0)
       Maximum Pressure Error:  0.96E+00 on Mesh   1 at (   1  38  21)
       ---------------------------------------------------------------
       Max CFL number:  0.53E-01 at (   1,  39,  17)
       Max divergence:  0.87E-01 at (   1,  45,  19)
       Min divergence: -0.94E-02 at (   5,  52,   3)
       Max VN number:   0.27E-01 at (   1,  45,  19)
       No. of Lagrangian Particles:          1758
       Radiation Loss to Boundaries:         0.032 kW

       Time Step     400   October 25, 2020  23:44:39
       Step Size:    0.495E-03 s, Total Time:       0.32 s
       Pressure Iterations:      1
       Maximum Velocity Error:  0.00E+00 on Mesh   1 at (   0   0   0)
       Maximum Pressure Error:  0.85E+00 on Mesh   1 at (   1  37  22)
       ---------------------------------------------------------------
       Max CFL number:  0.52E-01 at (   1,  47,  18)
       Max divergence:  0.81E-01 at (   1,  48,  17)
       Min divergence: -0.16E-01 at (   1,  49,  28)
       Max VN number:   0.29E-01 at (   1,  47,  19)
       No. of Lagrangian Particles:          2076
       Radiation Loss to Boundaries:         0.040 kW

       Time Step     500   October 25, 2020  23:45:35
       Step Size:    0.495E-03 s, Total Time:       0.37 s
       Pressure Iterations:      1
       Maximum Velocity Error:  0.00E+00 on Mesh   1 at (   0   0   0)
       Maximum Pressure Error:  0.95E+00 on Mesh   1 at (   1  47  31)
       ---------------------------------------------------------------
       Max CFL number:  0.50E-01 at (   1,  45,  24)
       Max divergence:  0.68E-01 at (   1,  44,  22)
       Min divergence: -0.15E-01 at (   1,  39,  18)
       Max VN number:   0.28E-01 at (   1,  47,  21)
       No. of Lagrangian Particles:          2376
       Radiation Loss to Boundaries:         0.047 kW

       Time Step     600   October 25, 2020  23:46:28
       Step Size:    0.495E-03 s, Total Time:       0.42 s
       Pressure Iterations:      1
       Maximum Velocity Error:  0.00E+00 on Mesh   1 at (   0   0   0)
       Maximum Pressure Error:  0.73E+00 on Mesh   1 at (   1  48  32)
       ---------------------------------------------------------------
       Max CFL number:  0.57E-01 at (   1,  51,  21)
       Max divergence:  0.66E-01 at (   1,  48,  19)
       Min divergence: -0.14E-01 at (   5,  53,   1)
       Max VN number:   0.25E-01 at (   2,  44,  21)
       No. of Lagrangian Particles:          2656
       Radiation Loss to Boundaries:         0.053 kW

       Time Step     700   October 25, 2020  23:47:22
       Step Size:    0.495E-03 s, Total Time:       0.47 s
       Pressure Iterations:      1
       Maximum Velocity Error:  0.00E+00 on Mesh   1 at (   0   0   0)
       Maximum Pressure Error:  0.97E+00 on Mesh   1 at (   1  53  34)
       ---------------------------------------------------------------
       Max CFL number:  0.46E-01 at (   1,  45,  22)
       Max divergence:  0.85E-01 at (   1,  43,  21)
       Min divergence: -0.15E-01 at (   3,  29,  13)
       Max VN number:   0.26E-01 at (   2,  47,  20)
       No. of Lagrangian Particles:          2955
       Radiation Loss to Boundaries:         0.060 kW

       Time Step     763   October 25, 2020  23:47:55
       Step Size:    0.758E-04 s, Total Time:       0.50 s
       Pressure Iterations:      1
       Maximum Velocity Error:  0.00E+00 on Mesh   1 at (   0   0   0)
       Maximum Pressure Error:  0.21E+01 on Mesh   1 at (   5  53   1)
       ---------------------------------------------------------------
       Max CFL number:  0.81E-02 at (   1,  42,  21)
       Max divergence:  0.71E-01 at (   1,  43,  19)
       Min divergence: -0.62E-01 at (   2,  55,  23)
       Max VN number:   0.37E-02 at (   2,  47,  20)
       No. of Lagrangian Particles:          3143
       Radiation Loss to Boundaries:         0.065 kW



 DEVICE Activation Times

   1  null                                                             0.1 s


 Time Stepping Wall Clock Time (s):      499.876
 Total Elapsed Wall Clock Time (s):      509.536

STOP: FDS completed successfully (CHID: impact)
