
 Fire Dynamics Simulator

 Current Date     : October 25, 2020  23:39:40
 Revision         : FDS6.7.5-318-gac3275a6c-master
 Revision Date    : Fri Oct 16 13:16:15 2020 -0400
 Compiler         : Gnu gfortran 10.2.0
 Compilation Date : Oct 17, 2020  00:20:10

 MPI Enabled;    Number of MPI Processes:       1
 OpenMP Enabled; Number of OpenMP Threads:      2

 MPI version: 3.1
 MPI library version: Open MPI v4.0.5, package: Open MPI builduser@anthraxx-slave-4 Distribution, ident: 4.0.5, repo rev: v4.0.5, Aug 26, 2020

 Job TITLE        : Example of a particle jet
 Job ID string    : jet


 Grid Dimensions, Mesh     1

   Cells in the X Direction            85
   Cells in the Y Direction            20
   Cells in the Z Direction            35
   Number of Grid Cells             59500


 Physical Dimensions, Mesh     1

   Length (m)                       8.500
   Width  (m)                       2.000
   Height (m)                       3.500
   Initial Time Step (s)            0.085

Total Number of Grid Cells         59500


 Miscellaneous Parameters

   Simulation Start Time (s)          0.0
   Simulation End Time (s)            5.0
   LES Calculation
   Eddy Viscosity:           Deardorff Model (C_DEARDORFF = 0.10)
   Near-wall Eddy Viscosity: Smagorinsky with Van Driest damping (C_SMAGORINSKY = 0.20)
   Turbulent Prandtl Number:         0.50
   Turbulent Schmidt Number:         0.50
   Ambient Temperature (C):         20.00


 Mass Fraction Transformation Matrix to Convert Species Mixtures (Columns) to Primitive Species (Rows)

                         AIR       WATER VA
   NITROGEN              0.762470  0.000000
   OXYGEN                0.230997  0.000000
   CARBON DIOXIDE        0.000591  0.000000
   WATER VAPOR           0.005941  1.000000


 Primitive Species Information

   NITROGEN
   Gas Species
   Molecular Weight (g/mol)            28.01340
   Ambient Density (kg/m^3)            1.165
   Enthalpy of Formation (J/kg)        0.00E+00

   OXYGEN
   Gas Species
   Molecular Weight (g/mol)            31.99880
   Ambient Density (kg/m^3)            1.330
   Enthalpy of Formation (J/kg)        0.00E+00

   CARBON DIOXIDE
   Gas Species
   Molecular Weight (g/mol)            44.00950
   Ambient Density (kg/m^3)            1.830
   Enthalpy of Formation (J/kg)       -8.94E+06

   WATER VAPOR
   Gas Species
   Molecular Weight (g/mol)            18.01528
   Ambient Density (kg/m^3)            0.749
   Enthalpy of Formation (J/kg)       -1.34E+07


 Tracked (Lumped) Species Information

   AIR
   Molecular Weight (g/mol)            28.75199
   Ambient Density (kg/m^3)            1.195
   Initial Mass Fraction               1.000
   Enthalpy of Formation (J/kg)     -8.50E+04

   Sub Species                    Mass Fraction     Mole Fraction
   NITROGEN                       7.624701E-01      7.825730E-01
   OXYGEN                         2.309974E-01      2.075589E-01
   CARBON DIOXIDE                 5.914651E-04      3.864120E-04
   WATER VAPOR                    5.940984E-03      9.481679E-03
 
     Viscosity (kg/m/s) Ambient,  293 K:  1.80E-05
                                  500 K:  2.61E-05
                                 1000 K:  4.13E-05
                                 1500 K:  5.37E-05
   Therm. Cond. (W/m/K) Ambient,  293 K:  2.56E-02
                                  500 K:  3.81E-02
                                 1000 K:  6.69E-02
                                 1500 K:  9.25E-02
        Enthalpy (J/kg) Ambient,  293 K: -9.01E+04
                                  500 K:  1.22E+05
                                 1000 K:  6.72E+05
                                 1500 K:  1.27E+06
    Spec. Heat (J/kg/K) Ambient,  293 K:  1.02E+03
                                  500 K:  1.04E+03
                                 1000 K:  1.16E+03
                                 1500 K:  1.23E+03
   Diff. Coeff. (m^2/s) Ambient,  293 K:  1.99E-05
                                  500 K:  4.96E-05
                                 1000 K:  1.58E-04
                                 1500 K:  3.09E-04

   WATER VAPOR
   Molecular Weight (g/mol)            18.01528
   Ambient Density (kg/m^3)            0.749
   Initial Mass Fraction               0.000
   Enthalpy of Formation (J/kg)     -1.34E+07

   Sub Species                    Mass Fraction     Mole Fraction
   WATER VAPOR                    1.000000E+00      1.000000E+00
 
     Viscosity (kg/m/s) Ambient,  293 K:  1.05E-05
                                  500 K:  1.77E-05
                                 1000 K:  3.58E-05
                                 1500 K:  5.21E-05
   Therm. Cond. (W/m/K) Ambient,  293 K:  1.96E-02
                                  500 K:  3.46E-02
                                 1000 K:  8.21E-02
                                 1500 K:  1.37E-01
        Enthalpy (J/kg) Ambient,  293 K: -1.34E+07
                                  500 K: -1.30E+07
                                 1000 K: -1.20E+07
                                 1500 K: -1.07E+07
    Spec. Heat (J/kg/K) Ambient,  293 K:  1.86E+03
                                  500 K:  1.96E+03
                                 1000 K:  2.29E+03
                                 1500 K:  2.63E+03
   Diff. Coeff. (m^2/s) Ambient,  293 K:  2.10E-05
                                  500 K:  5.78E-05
                                 1000 K:  1.98E-04
                                 1500 K:  3.95E-04
 
   Liq. Enthalpy (J/kg)     Melt  273 K: -1.60E+07
                                  323 K: -1.58E+07
                            Boil  373 K: -1.56E+07
 
   Liq. Spec. Heat (J/kg/K) Melt  273 K:  4.23E+03
                                  323 K:  4.18E+03
                            Boil  373 K:  4.22E+03
 
   Heat of Vapor. (J/kg)    Melt  273 K:  2.50E+06
                                  323 K:  2.39E+06
                            Boil  373 K:  2.27E+06


 Material Information


 Surface Conditions

   0 INERT (DEFAULT)

   1 OPEN
     Passive Vent to Atmosphere

   2 MIRROR
     Symmetry Plane

   3 INTERPOLATED

   4 PERIODIC

   5 HVAC

   6 MASSLESS TRACER

   7 DROPLET

   8 EVACUATION_OUTFLOW
     Normal Velocity (m/s)         0.000

   9 MASSLESS TARGET

  10 PERIODIC FLOW ONLY


 Device Properties

   1 nozzle
     Flow Rate (L/min)              10.00
     Particle Class              water droplets
     Smokeview ID                nozzle


 Cut-off Density and Temperature

    Minimum Temperature:   -10.0 C
    Maximum Temperature:  2726.8 C
    Minimum Density:  1.195E-01 kg/m3
    Maximum Density:  2.663E+00 kg/m3


 Device Coordinates

     1 Coords:      0.001000      0.000000      0.000000, Make: nozzle, ID: null, Quantity: TIME


 Radiation Model Information

   Number of control angles  104
   Time step increment         3
   Angle increment             5
   Theta band N_phi   Solid angle
     1:        4     0.120
     2:       12     0.114
     3:       16     0.127
     4:       20     0.120
     5:       20     0.120
     6:       16     0.127
     7:       12     0.114
     8:        4     0.120
   Using gray gas absorption.
   Mean beam length  0.100 m



 Run Time Diagnostics

       Time Step       1   October 25, 2020  23:39:41
       Step Size:    0.845E-01 s, Total Time:       0.08 s
       Pressure Iterations:      1
       Maximum Velocity Error:  0.00E+00 on Mesh   1 at (   0   0   0)
       Maximum Pressure Error:  0.56E-05 on Mesh   1 at (  77  10   1)
       ---------------------------------------------------------------
       Max CFL number:  0.85E+00 at (  87,   0,   8)
       Max divergence:  0.12E-05 at (  49,   9,  32)
       Min divergence: -0.13E-05 at (  48,  11,  30)
       Max VN number:   0.13E-01 at (  48,  11,  30)

       Time Step       2   October 25, 2020  23:39:41
       Step Size:    0.845E-01 s, Total Time:       0.17 s
       Pressure Iterations:      1
       Maximum Velocity Error:  0.00E+00 on Mesh   1 at (   0   0   0)
       Maximum Pressure Error:  0.40E-07 on Mesh   1 at (  43  19  35)
       ---------------------------------------------------------------
       Max CFL number:  0.85E+00 at (  87,   0,   8)
       Max divergence:  0.12E-05 at (  49,   9,  32)
       Min divergence: -0.13E-05 at (  48,  11,  30)
       Max VN number:   0.13E-01 at (  48,  11,  30)

       Time Step       3   October 25, 2020  23:39:42
       Step Size:    0.900E-02 s, Total Time:       0.18 s
       Pressure Iterations:      1
       Maximum Velocity Error:  0.00E+00 on Mesh   1 at (   0   0   0)
       Maximum Pressure Error:  0.14E-01 on Mesh   1 at (   3  11  12)
       ---------------------------------------------------------------
       Max CFL number:  0.90E-01 at (  87,   0,   8)
       Max divergence:  0.10E+01 at (   2,  11,  11)
       Min divergence: -0.16E-05 at (   3,  11,  11)
       Max VN number:   0.14E-02 at (  48,  11,  30)
       No. of Lagrangian Particles:            85

       Time Step       4   October 25, 2020  23:39:42
       Step Size:    0.900E-02 s, Total Time:       0.19 s
       Pressure Iterations:      1
       Maximum Velocity Error:  0.00E+00 on Mesh   1 at (   0   0   0)
       Maximum Pressure Error:  0.18E+02 on Mesh   1 at (   2  11  11)
       ---------------------------------------------------------------
       Max CFL number:  0.86E+00 at (   2,  11,  11)
       Max divergence:  0.55E+00 at (   3,  10,  10)
       Min divergence: -0.40E-04 at (   4,  10,   9)
       Max VN number:   0.14E+00 at (   2,  11,  11)
       No. of Lagrangian Particles:            94
       Radiation Loss to Boundaries:         0.007 kW

       Time Step       5   October 25, 2020  23:39:43
       Step Size:    0.900E-02 s, Total Time:       0.20 s
       Pressure Iterations:      1
       Maximum Velocity Error:  0.00E+00 on Mesh   1 at (   0   0   0)
       Maximum Pressure Error:  0.46E+01 on Mesh   1 at (   2  11  10)
       ---------------------------------------------------------------
       Max CFL number:  0.80E+00 at (   3,  11,  11)
       Max divergence:  0.34E+00 at (   3,  11,  10)
       Min divergence: -0.46E-04 at (   4,   9,   9)
       Max VN number:   0.27E+00 at (   2,  11,  11)
       No. of Lagrangian Particles:           103
       Radiation Loss to Boundaries:         0.022 kW

       Time Step       6   October 25, 2020  23:39:43
       Step Size:    0.900E-02 s, Total Time:       0.21 s
       Pressure Iterations:      1
       Maximum Velocity Error:  0.00E+00 on Mesh   1 at (   0   0   0)
       Maximum Pressure Error:  0.90E+00 on Mesh   1 at (   3  10  10)
       ---------------------------------------------------------------
       Max CFL number:  0.68E+00 at (   2,  10,  10)
       Max divergence:  0.30E+00 at (   4,  10,  10)
       Min divergence: -0.14E-04 at (   5,   9,   9)
       Max VN number:   0.31E+00 at (   3,  11,  11)
       No. of Lagrangian Particles:           112
       Radiation Loss to Boundaries:         0.022 kW

       Time Step       7   October 25, 2020  23:39:43
       Step Size:    0.900E-02 s, Total Time:       0.21 s
       Pressure Iterations:      1
       Maximum Velocity Error:  0.00E+00 on Mesh   1 at (   0   0   0)
       Maximum Pressure Error:  0.16E+01 on Mesh   1 at (   4  10  10)
       ---------------------------------------------------------------
       Max CFL number:  0.61E+00 at (   4,  10,  10)
       Max divergence:  0.21E+00 at (   4,  11,  10)
       Min divergence: -0.33E-02 at (   3,   9,  10)
       Max VN number:   0.31E+00 at (   3,  11,  11)
       No. of Lagrangian Particles:           121
       Radiation Loss to Boundaries:         0.017 kW

       Time Step       8   October 25, 2020  23:39:44
       Step Size:    0.900E-02 s, Total Time:       0.22 s
       Pressure Iterations:      1
       Maximum Velocity Error:  0.00E+00 on Mesh   1 at (   0   0   0)
       Maximum Pressure Error:  0.78E+00 on Mesh   1 at (   4  10  10)
       ---------------------------------------------------------------
       Max CFL number:  0.66E+00 at (   3,  10,  10)
       Max divergence:  0.23E+00 at (   5,  10,  10)
       Min divergence: -0.23E-02 at (   3,   9,  10)
       Max VN number:   0.31E+00 at (   3,  10,  10)
       No. of Lagrangian Particles:           130
       Radiation Loss to Boundaries:         0.015 kW

       Time Step       9   October 25, 2020  23:39:44
       Step Size:    0.900E-02 s, Total Time:       0.23 s
       Pressure Iterations:      1
       Maximum Velocity Error:  0.00E+00 on Mesh   1 at (   0   0   0)
       Maximum Pressure Error:  0.16E+01 on Mesh   1 at (   5  10  10)
       ---------------------------------------------------------------
       Max CFL number:  0.66E+00 at (   4,  10,  10)
       Max divergence:  0.18E+00 at (   5,  11,  10)
       Min divergence: -0.21E-02 at (   3,   9,  10)
       Max VN number:   0.30E+00 at (   3,  10,  10)
       No. of Lagrangian Particles:           139
       Radiation Loss to Boundaries:         0.016 kW

       Time Step      10   October 25, 2020  23:39:44
       Step Size:    0.900E-02 s, Total Time:       0.24 s
       Pressure Iterations:      1
       Maximum Velocity Error:  0.00E+00 on Mesh   1 at (   0   0   0)
       Maximum Pressure Error:  0.11E+01 on Mesh   1 at (   5  10  10)
       ---------------------------------------------------------------
       Max CFL number:  0.66E+00 at (   5,  10,  10)
       Max divergence:  0.25E+00 at (   6,  10,  10)
       Min divergence: -0.17E-02 at (   4,  11,  12)
       Max VN number:   0.31E+00 at (   4,  10,  10)
       No. of Lagrangian Particles:           148
       Radiation Loss to Boundaries:         0.014 kW

       Time Step      20   October 25, 2020  23:39:48
       Step Size:    0.900E-02 s, Total Time:       0.33 s
       Pressure Iterations:      1
       Maximum Velocity Error:  0.00E+00 on Mesh   1 at (   0   0   0)
       Maximum Pressure Error:  0.58E+00 on Mesh   1 at (   9  10  10)
       ---------------------------------------------------------------
       Max CFL number:  0.59E+00 at (   9,  10,  10)
       Max divergence:  0.18E+00 at (   2,  10,  11)
       Min divergence: -0.34E-02 at (   8,  10,   9)
       Max VN number:   0.27E+00 at (   8,  10,  10)
       No. of Lagrangian Particles:           238
       Radiation Loss to Boundaries:         0.025 kW

       Time Step      30   October 25, 2020  23:39:52
       Step Size:    0.900E-02 s, Total Time:       0.42 s
       Pressure Iterations:      1
       Maximum Velocity Error:  0.00E+00 on Mesh   1 at (   0   0   0)
       Maximum Pressure Error:  0.46E+00 on Mesh   1 at (   3  11  10)
       ---------------------------------------------------------------
       Max CFL number:  0.53E+00 at (  10,  11,  11)
       Max divergence:  0.23E+00 at (   2,  10,  10)
       Min divergence: -0.42E-02 at (  11,  11,  11)
       Max VN number:   0.22E+00 at (   4,  11,  11)
       No. of Lagrangian Particles:           328
       Radiation Loss to Boundaries:         0.036 kW

       Time Step      40   October 25, 2020  23:39:57
       Step Size:    0.900E-02 s, Total Time:       0.51 s
       Pressure Iterations:      1
       Maximum Velocity Error:  0.00E+00 on Mesh   1 at (   0   0   0)
       Maximum Pressure Error:  0.38E+00 on Mesh   1 at (   3  10  11)
       ---------------------------------------------------------------
       Max CFL number:  0.55E+00 at (  12,  10,  11)
       Max divergence:  0.27E+00 at (   2,  10,  11)
       Min divergence: -0.52E-02 at (   9,  11,  11)
       Max VN number:   0.18E+00 at (  12,  10,  11)
       No. of Lagrangian Particles:           418
       Radiation Loss to Boundaries:         0.043 kW

       Time Step      50   October 25, 2020  23:40:02
       Step Size:    0.900E-02 s, Total Time:       0.60 s
       Pressure Iterations:      1
       Maximum Velocity Error:  0.00E+00 on Mesh   1 at (   0   0   0)
       Maximum Pressure Error:  0.37E+00 on Mesh   1 at (   2  11  10)
       ---------------------------------------------------------------
       Max CFL number:  0.56E+00 at (  14,  10,  11)
       Max divergence:  0.18E+00 at (   2,  10,  11)
       Min divergence: -0.64E-02 at (  15,  10,  11)
       Max VN number:   0.19E+00 at (   3,  11,  10)
       No. of Lagrangian Particles:           508
       Radiation Loss to Boundaries:         0.049 kW

       Time Step      60   October 25, 2020  23:40:07
       Step Size:    0.900E-02 s, Total Time:       0.69 s
       Pressure Iterations:      1
       Maximum Velocity Error:  0.00E+00 on Mesh   1 at (   0   0   0)
       Maximum Pressure Error:  0.34E+00 on Mesh   1 at (   3  10  11)
       ---------------------------------------------------------------
       Max CFL number:  0.54E+00 at (  17,  10,  11)
       Max divergence:  0.14E+00 at (   3,  11,  11)
       Min divergence: -0.53E-02 at (  18,  10,  11)
       Max VN number:   0.19E+00 at (   3,  10,  11)
       No. of Lagrangian Particles:           598
       Radiation Loss to Boundaries:         0.065 kW

       Time Step      70   October 25, 2020  23:40:11
       Step Size:    0.900E-02 s, Total Time:       0.78 s
       Pressure Iterations:      1
       Maximum Velocity Error:  0.00E+00 on Mesh   1 at (   0   0   0)
       Maximum Pressure Error:  0.76E+00 on Mesh   1 at (   4  11  10)
       ---------------------------------------------------------------
       Max CFL number:  0.49E+00 at (  20,  10,  11)
       Max divergence:  0.19E+00 at (   2,  10,  10)
       Min divergence: -0.42E-02 at (  20,  10,  11)
       Max VN number:   0.20E+00 at (   3,  11,  10)
       No. of Lagrangian Particles:           684
       Radiation Loss to Boundaries:         0.070 kW

       Time Step      80   October 25, 2020  23:40:16
       Step Size:    0.900E-02 s, Total Time:       0.87 s
       Pressure Iterations:      1
       Maximum Velocity Error:  0.00E+00 on Mesh   1 at (   0   0   0)
       Maximum Pressure Error:  0.60E+00 on Mesh   1 at (   3  10  11)
       ---------------------------------------------------------------
       Max CFL number:  0.48E+00 at (   6,  11,  10)
       Max divergence:  0.27E+00 at (   2,  10,  11)
       Min divergence: -0.43E-02 at (  23,  10,  11)
       Max VN number:   0.18E+00 at (   3,  11,  10)
       No. of Lagrangian Particles:           767
       Radiation Loss to Boundaries:         0.084 kW

       Time Step      90   October 25, 2020  23:40:23
       Step Size:    0.900E-02 s, Total Time:       0.96 s
       Pressure Iterations:      1
       Maximum Velocity Error:  0.00E+00 on Mesh   1 at (   0   0   0)
       Maximum Pressure Error:  0.32E+00 on Mesh   1 at (   4  10  10)
       ---------------------------------------------------------------
       Max CFL number:  0.45E+00 at (   6,  10,  11)
       Max divergence:  0.20E+00 at (   2,  10,  10)
       Min divergence: -0.35E-02 at (  25,  10,  11)
       Max VN number:   0.19E+00 at (   3,  10,  10)
       No. of Lagrangian Particles:           839
       Radiation Loss to Boundaries:         0.095 kW

       Time Step     100   October 25, 2020  23:40:27
       Step Size:    0.900E-02 s, Total Time:       1.05 s
       Pressure Iterations:      1
       Maximum Velocity Error:  0.00E+00 on Mesh   1 at (   0   0   0)
       Maximum Pressure Error:  0.38E+00 on Mesh   1 at (   4  10  10)
       ---------------------------------------------------------------
       Max CFL number:  0.48E+00 at (   2,  11,  11)
       Max divergence:  0.12E+00 at (   2,  10,  10)
       Min divergence: -0.47E-02 at (  19,  11,  11)
       Max VN number:   0.23E+00 at (   3,  11,  11)
       No. of Lagrangian Particles:           891
       Radiation Loss to Boundaries:         0.105 kW

       Time Step     200   October 25, 2020  23:41:10
       Step Size:    0.900E-02 s, Total Time:       1.95 s
       Pressure Iterations:      1
       Maximum Velocity Error:  0.00E+00 on Mesh   1 at (   0   0   0)
       Maximum Pressure Error:  0.31E+00 on Mesh   1 at (   3  10  11)
       ---------------------------------------------------------------
       Max CFL number:  0.46E+00 at (   9,  11,  11)
       Max divergence:  0.19E+00 at (   2,  11,  10)
       Min divergence: -0.40E-02 at (  27,  12,   1)
       Max VN number:   0.18E+00 at (   3,  10,  10)
       No. of Lagrangian Particles:          1347
       Radiation Loss to Boundaries:         0.180 kW

       Time Step     300   October 25, 2020  23:41:56
       Step Size:    0.900E-02 s, Total Time:       2.85 s
       Pressure Iterations:      1
       Maximum Velocity Error:  0.00E+00 on Mesh   1 at (   0   0   0)
       Maximum Pressure Error:  0.28E+00 on Mesh   1 at (   5  10  10)
       ---------------------------------------------------------------
       Max CFL number:  0.48E+00 at (  14,  11,  11)
       Max divergence:  0.17E+00 at (   2,  11,  11)
       Min divergence: -0.58E-02 at (  29,  10,   8)
       Max VN number:   0.22E+00 at (   4,  10,  10)
       No. of Lagrangian Particles:          1650
       Radiation Loss to Boundaries:         0.238 kW

       Time Step     400   October 25, 2020  23:42:45
       Step Size:    0.900E-02 s, Total Time:       3.75 s
       Pressure Iterations:      1
       Maximum Velocity Error:  0.00E+00 on Mesh   1 at (   0   0   0)
       Maximum Pressure Error:  0.46E+00 on Mesh   1 at (   3  10  11)
       ---------------------------------------------------------------
       Max CFL number:  0.46E+00 at (   2,  10,  10)
       Max divergence:  0.18E+00 at (   3,  10,  10)
       Min divergence: -0.41E-02 at (   8,  11,  11)
       Max VN number:   0.22E+00 at (   3,  10,  10)
       No. of Lagrangian Particles:          1896
       Radiation Loss to Boundaries:         0.263 kW

       Time Step     500   October 25, 2020  23:43:29
       Step Size:    0.900E-02 s, Total Time:       4.65 s
       Pressure Iterations:      1
       Maximum Velocity Error:  0.00E+00 on Mesh   1 at (   0   0   0)
       Maximum Pressure Error:  0.29E+00 on Mesh   1 at (   6  10  11)
       ---------------------------------------------------------------
       Max CFL number:  0.52E+00 at (   4,  10,  11)
       Max divergence:  0.26E+00 at (   2,  10,  10)
       Min divergence: -0.67E-02 at (  26,  10,  11)
       Max VN number:   0.23E+00 at (   4,  10,  11)
       No. of Lagrangian Particles:          2112
       Radiation Loss to Boundaries:         0.291 kW

       Time Step     539   October 25, 2020  23:43:45
       Step Size:    0.536E-02 s, Total Time:       5.00 s
       Pressure Iterations:      1
       Maximum Velocity Error:  0.00E+00 on Mesh   1 at (   0   0   0)
       Maximum Pressure Error:  0.67E+00 on Mesh   1 at (   3  10  11)
       ---------------------------------------------------------------
       Max CFL number:  0.28E+00 at (   8,  10,  11)
       Max divergence:  0.22E+00 at (   2,  10,  11)
       Min divergence: -0.44E-02 at (  19,  10,  11)
       Max VN number:   0.11E+00 at (   3,  10,  10)
       No. of Lagrangian Particles:          2190
       Radiation Loss to Boundaries:         0.311 kW



 DEVICE Activation Times

   1  null                                                             0.1 s


 Time Stepping Wall Clock Time (s):      245.217
 Total Elapsed Wall Clock Time (s):      255.865

STOP: FDS completed successfully (CHID: jet)
