
 Fire Dynamics Simulator

 Current Date     : October 24, 2020  19:51:40
 Revision         : FDS6.7.5-318-gac3275a6c-master
 Revision Date    : Fri Oct 16 13:16:15 2020 -0400
 Compiler         : Gnu gfortran 10.2.0
 Compilation Date : Oct 17, 2020  00:20:10

 MPI Enabled;    Number of MPI Processes:       1
 OpenMP Enabled; Number of OpenMP Threads:      4

 MPI version: 3.1
 MPI library version: Open MPI v4.0.5, package: Open MPI builduser@anthraxx-slave-4 Distribution, ident: 4.0.5, repo rev: v4.0.5, Aug 26, 2020

 Job TITLE        : 000: uniform particle distribution in an entire cube
 Job ID string    : 000_distribution_cube_full


 Grid Dimensions, Mesh     1

   Cells in the X Direction             3
   Cells in the Y Direction             3
   Cells in the Z Direction             3
   Number of Grid Cells                27


 Physical Dimensions, Mesh     1

   Length (m)                       1.000
   Width  (m)                       1.000
   Height (m)                       1.000
   Initial Time Step (s)            1.000

 Grid Dimensions, Mesh     2

   Cells in the X Direction             3
   Cells in the Y Direction             3
   Cells in the Z Direction             3
   Number of Grid Cells                27


 Physical Dimensions, Mesh     2

   Length (m)                       1.000
   Width  (m)                       1.000
   Height (m)                       1.000
   Initial Time Step (s)            1.000

 Grid Dimensions, Mesh     3

   Cells in the X Direction             3
   Cells in the Y Direction             3
   Cells in the Z Direction             3
   Number of Grid Cells                27


 Physical Dimensions, Mesh     3

   Length (m)                       1.000
   Width  (m)                       1.000
   Height (m)                       1.000
   Initial Time Step (s)            1.000

 Grid Dimensions, Mesh     4

   Cells in the X Direction             3
   Cells in the Y Direction             3
   Cells in the Z Direction             3
   Number of Grid Cells                27


 Physical Dimensions, Mesh     4

   Length (m)                       1.000
   Width  (m)                       1.000
   Height (m)                       1.000
   Initial Time Step (s)            1.000

 Grid Dimensions, Mesh     5

   Cells in the X Direction             3
   Cells in the Y Direction             3
   Cells in the Z Direction             3
   Number of Grid Cells                27


 Physical Dimensions, Mesh     5

   Length (m)                       1.000
   Width  (m)                       1.000
   Height (m)                       1.000
   Initial Time Step (s)            1.000

 Grid Dimensions, Mesh     6

   Cells in the X Direction             3
   Cells in the Y Direction             3
   Cells in the Z Direction             3
   Number of Grid Cells                27


 Physical Dimensions, Mesh     6

   Length (m)                       1.000
   Width  (m)                       1.000
   Height (m)                       1.000
   Initial Time Step (s)            1.000

 Grid Dimensions, Mesh     7

   Cells in the X Direction             3
   Cells in the Y Direction             3
   Cells in the Z Direction             3
   Number of Grid Cells                27


 Physical Dimensions, Mesh     7

   Length (m)                       1.000
   Width  (m)                       1.000
   Height (m)                       1.000
   Initial Time Step (s)            1.000

 Grid Dimensions, Mesh     8

   Cells in the X Direction             3
   Cells in the Y Direction             3
   Cells in the Z Direction             3
   Number of Grid Cells                27


 Physical Dimensions, Mesh     8

   Length (m)                       1.000
   Width  (m)                       1.000
   Height (m)                       1.000
   Initial Time Step (s)            1.000

Total Number of Grid Cells           216


 Miscellaneous Parameters

   Simulation Start Time (s)          0.0
   Simulation End Time (s)            1.0
   LES Calculation
   Eddy Viscosity:           Deardorff Model (C_DEARDORFF = 0.10)
   Near-wall Eddy Viscosity: Smagorinsky with Van Driest damping (C_SMAGORINSKY = 0.20)
   Turbulent Prandtl Number:         0.50
   Turbulent Schmidt Number:         0.50
   Ambient Temperature (C):         20.00


 Mass Fraction Transformation Matrix to Convert Species Mixtures (Columns) to Primitive Species (Rows)

                         AIR     
   NITROGEN              0.762470
   OXYGEN                0.230997
   CARBON DIOXIDE        0.000591
   WATER VAPOR           0.005941


 Primitive Species Information

   NITROGEN
   Gas Species
   Molecular Weight (g/mol)            28.01340
   Ambient Density (kg/m^3)            1.165
   Enthalpy of Formation (J/kg)        0.00E+00

   OXYGEN
   Gas Species
   Molecular Weight (g/mol)            31.99880
   Ambient Density (kg/m^3)            1.330
   Enthalpy of Formation (J/kg)        0.00E+00

   CARBON DIOXIDE
   Gas Species
   Molecular Weight (g/mol)            44.00950
   Ambient Density (kg/m^3)            1.830
   Enthalpy of Formation (J/kg)       -8.94E+06

   WATER VAPOR
   Gas Species
   Molecular Weight (g/mol)            18.01528
   Ambient Density (kg/m^3)            0.749
   Enthalpy of Formation (J/kg)       -1.34E+07


 Tracked (Lumped) Species Information

   AIR
   Molecular Weight (g/mol)            28.75199
   Ambient Density (kg/m^3)            1.195
   Initial Mass Fraction               1.000
   Enthalpy of Formation (J/kg)     -8.50E+04

   Sub Species                    Mass Fraction     Mole Fraction
   NITROGEN                       7.624701E-01      7.825730E-01
   OXYGEN                         2.309974E-01      2.075589E-01
   CARBON DIOXIDE                 5.914651E-04      3.864120E-04
   WATER VAPOR                    5.940984E-03      9.481679E-03
 
     Viscosity (kg/m/s) Ambient,  293 K:  1.80E-05
                                  500 K:  2.61E-05
                                 1000 K:  4.13E-05
                                 1500 K:  5.37E-05
   Therm. Cond. (W/m/K) Ambient,  293 K:  2.56E-02
                                  500 K:  3.81E-02
                                 1000 K:  6.69E-02
                                 1500 K:  9.25E-02
        Enthalpy (J/kg) Ambient,  293 K: -9.01E+04
                                  500 K:  1.22E+05
                                 1000 K:  6.72E+05
                                 1500 K:  1.27E+06
    Spec. Heat (J/kg/K) Ambient,  293 K:  1.02E+03
                                  500 K:  1.04E+03
                                 1000 K:  1.16E+03
                                 1500 K:  1.23E+03
   Diff. Coeff. (m^2/s) Ambient,  293 K:  1.99E-05
                                  500 K:  4.96E-05
                                 1000 K:  1.58E-04
                                 1500 K:  3.09E-04


 Material Information


 Surface Conditions

   0 INERT (DEFAULT)

   1 OPEN
     Passive Vent to Atmosphere

   2 MIRROR
     Symmetry Plane

   3 INTERPOLATED

   4 PERIODIC

   5 HVAC

   6 MASSLESS TRACER

   7 DROPLET

   8 EVACUATION_OUTFLOW
     Normal Velocity (m/s)         0.000

   9 MASSLESS TARGET

  10 PERIODIC FLOW ONLY


 Cut-off Density and Temperature

    Minimum Temperature:   -10.0 C
    Maximum Temperature:  2726.8 C
    Minimum Density:  1.195E-01 kg/m3
    Maximum Density:  2.663E+00 kg/m3


 Radiation Model Information

   Number of control angles  104
   Time step increment         3
   Angle increment             5
   Theta band N_phi   Solid angle
     1:        4     0.120
     2:       12     0.114
     3:       16     0.127
     4:       20     0.120
     5:       20     0.120
     6:       16     0.127
     7:       12     0.114
     8:        4     0.120
   Using gray gas absorption.
   Mean beam length  0.100 m



 Run Time Diagnostics

       Time Step       1   October 24, 2020  19:51:40
       Step Size:    0.100E+01 s, Total Time:       1.00 s
       Pressure Iterations:      1
       Maximum Velocity Error:  0.15E-03 on Mesh   4 at (   3   2   4)
       Maximum Pressure Error:  0.14E-08 on Mesh   4 at (   3   2   3)
       ---------------------------------------------------------------
       Mesh    1
       Max CFL number:  0.30E+01 at (   5,   0,   8)
       Max divergence:  0.88E-06 at (   1,   1,   2)
       Min divergence: -0.79E-06 at (   3,   3,   3)
       Max VN number:   0.25E-01 at (   2,   2,   2)
       No. of Lagrangian Particles:           540
       Mesh    2
       Max CFL number:  0.30E+01 at (   5,   0,   8)
       Max divergence:  0.73E-06 at (   2,   2,   2)
       Min divergence: -0.77E-06 at (   2,   3,   3)
       Max VN number:   0.25E-01 at (   2,   2,   2)
       No. of Lagrangian Particles:           540
       Mesh    3
       Max CFL number:  0.30E+01 at (   5,   0,   8)
       Max divergence:  0.34E-06 at (   1,   3,   1)
       Min divergence: -0.90E-06 at (   3,   1,   3)
       Max VN number:   0.30E-01 at (   2,   2,   2)
       No. of Lagrangian Particles:           540
       Mesh    4
       Max CFL number:  0.30E+01 at (   5,   0,   8)
       Max divergence:  0.63E-06 at (   2,   3,   1)
       Min divergence: -0.67E-06 at (   2,   1,   3)
       Max VN number:   0.30E-01 at (   2,   2,   3)
       No. of Lagrangian Particles:           540
       Mesh    5
       Max CFL number:  0.30E+01 at (   5,   0,   8)
       Max divergence:  0.90E-06 at (   1,   2,   2)
       Min divergence: -0.73E-06 at (   3,   3,   2)
       Max VN number:   0.21E-01 at (   2,   3,   2)
       No. of Lagrangian Particles:           540
       Mesh    6
       Max CFL number:  0.30E+01 at (   5,   0,   8)
       Max divergence:  0.67E-06 at (   3,   1,   3)
       Min divergence: -0.71E-06 at (   1,   3,   1)
       Max VN number:   0.20E-01 at (   2,   2,   1)
       No. of Lagrangian Particles:           540
       Mesh    7
       Max CFL number:  0.30E+01 at (   5,   0,   8)
       Max divergence:  0.59E-06 at (   1,   3,   2)
       Min divergence: -0.88E-06 at (   3,   1,   1)
       Max VN number:   0.18E-01 at (   3,   2,   2)
       No. of Lagrangian Particles:           540
       Mesh    8
       Max CFL number:  0.30E+01 at (   5,   0,   8)
       Max divergence:  0.84E-06 at (   3,   3,   2)
       Min divergence: -0.41E-06 at (   2,   3,   2)
       Max VN number:   0.16E-01 at (   2,   1,   2)
       No. of Lagrangian Particles:           540



 Time Stepping Wall Clock Time (s):        0.034
 Total Elapsed Wall Clock Time (s):        1.593

STOP: FDS completed successfully (CHID: 000_distribution_cube_full)
