&HEAD CHID='fireball' TITLE='fireball'/

!! dx = 0.2

!! raw input mesh: MESH IJK=648,360,864, XB=-64.8,64.8,-52.0,20.0,0.0,172.8 /
!! raw input decomposition: 9,4,16
!! i: 648, j: 360, k: 864
!! x: -64.8,64.8
!! y: -52.0,20.0
!! z: 0.0,172.8
!! decomposition: 9, 4, 16
!! lx: 129.6, dx: 14.399999999999999, di: 72
!! ly: 72.0000, dy: 18.0000, dj: 90
!! lz: 172.8000, dz: 10.8000, dk: 54
!! resulting number of meshes: 576
!! ===========================
&MESH ID='1' IJK=72,90,54 XB=-64.8000,-50.4000,-52.0000,-34.0000,0.0000,10.8000 /
&MESH ID='2' IJK=72,90,54 XB=-64.8000,-50.4000,-52.0000,-34.0000,10.8000,21.6000 /
&MESH ID='3' IJK=72,90,54 XB=-64.8000,-50.4000,-52.0000,-34.0000,21.6000,32.4000 /
&MESH ID='4' IJK=72,90,54 XB=-64.8000,-50.4000,-52.0000,-34.0000,32.4000,43.2000 /
&MESH ID='5' IJK=72,90,54 XB=-64.8000,-50.4000,-52.0000,-34.0000,43.2000,54.0000 /
&MESH ID='6' IJK=72,90,54 XB=-64.8000,-50.4000,-52.0000,-34.0000,54.0000,64.8000 /
&MESH ID='7' IJK=72,90,54 XB=-64.8000,-50.4000,-52.0000,-34.0000,64.8000,75.6000 /
&MESH ID='8' IJK=72,90,54 XB=-64.8000,-50.4000,-52.0000,-34.0000,75.6000,86.4000 /
&MESH ID='9' IJK=72,90,54 XB=-64.8000,-50.4000,-52.0000,-34.0000,86.4000,97.2000 /
&MESH ID='10' IJK=72,90,54 XB=-64.8000,-50.4000,-52.0000,-34.0000,97.2000,108.0000 /
&MESH ID='11' IJK=72,90,54 XB=-64.8000,-50.4000,-52.0000,-34.0000,108.0000,118.8000 /
&MESH ID='12' IJK=72,90,54 XB=-64.8000,-50.4000,-52.0000,-34.0000,118.8000,129.6000 /
&MESH ID='13' IJK=72,90,54 XB=-64.8000,-50.4000,-52.0000,-34.0000,129.6000,140.4000 /
&MESH ID='14' IJK=72,90,54 XB=-64.8000,-50.4000,-52.0000,-34.0000,140.4000,151.2000 /
&MESH ID='15' IJK=72,90,54 XB=-64.8000,-50.4000,-52.0000,-34.0000,151.2000,162.0000 /
&MESH ID='16' IJK=72,90,54 XB=-64.8000,-50.4000,-52.0000,-34.0000,162.0000,172.8000 /
&MESH ID='17' IJK=72,90,54 XB=-64.8000,-50.4000,-34.0000,-16.0000,0.0000,10.8000 /
&MESH ID='18' IJK=72,90,54 XB=-64.8000,-50.4000,-34.0000,-16.0000,10.8000,21.6000 /
&MESH ID='19' IJK=72,90,54 XB=-64.8000,-50.4000,-34.0000,-16.0000,21.6000,32.4000 /
&MESH ID='20' IJK=72,90,54 XB=-64.8000,-50.4000,-34.0000,-16.0000,32.4000,43.2000 /
! ... 556 like lines cut
!! ===========================



&TIME T_END=8.0, DT=0.01 /

&MISC PARTICLE_CFL=.TRUE., POROUS_FLOOR=.FALSE./

&DUMP NFRAMES = 10000 /

&REAC FUEL='N-HEPTANE'
      CO_YIELD=0.0
      SOOT_H_FRACTION=0.1
      SOOT_YIELD=0.015 /


&MATL ID='BETON ', CONDUCTIVITY =1.8 , DENSITY =2280 , SPECIFIC_HEAT =1.04 /
&SURF ID='BETONWAND ', MATL_ID ='BETON ', THICKNESS =0.20 , COLOR ='GRAY' /

&SPEC ID='WATER VAPOR'/

&PART ID='water droplets', SPEC_ID='WATER VAPOR', 
      QUANTITIES(1:7)='PARTICLE DIAMETER', 'PARTICLE MASS', 'PARTICLE TEMPERATURE', 'PARTICLE U', 'PARTICLE V', 'PARTICLE W', 'PARTICLE WEIGHTING FACTOR',
      DIAMETER=100., SAMPLING_FACTOR=1 /

&PART ID='heptane droplets',SPEC_ID='N-HEPTANE',
      QUANTITIES(1:7)='PARTICLE DIAMETER', 'PARTICLE MASS', 'PARTICLE TEMPERATURE', 'PARTICLE U', 'PARTICLE V', 'PARTICLE W', 'PARTICLE WEIGHTING FACTOR',
      DIAMETER=100.,HEAT_OF_COMBUSTION=44500.,SAMPLING_FACTOR=1 /

&PART ID='tracer', MASSLESS=.TRUE., 
      QUANTITIES(1:7)='PARTICLE DIAMETER', 'PARTICLE MASS', 'PARTICLE TEMPERATURE', 'PARTICLE U', 'PARTICLE V', 'PARTICLE W', 'PARTICLE WEIGHTING FACTOR', 
      DIAMETER=100., SAMPLING_FACTOR=1 /

&INIT PART_ID='tracer', XB=-1.5,1.5,-0.3,-0.1,13.5,16.5, N_PARTICLES=50000 /

&PROP ID='nozzle', PART_ID='heptane droplets', PARTICLES_PER_SECOND=5000000, MASS_FLOW_RATE=200000.0, DROPLET_VELOCITY=250., SPRAY_ANGLE=70.,90., OFFSET=0.25 /

&DEVC ID='nozzle_1', XYZ=0.0,-0.1,15.0, PROP_ID='nozzle', QUANTITY='CONTROL', CTRL_ID='controller_1', LATCH=.FALSE., ORIENTATION=0,-1,0,/
&DEVC XYZ=0.0,-0.1,15.0, ID='clock 1', QUANTITY='TIME' /

&CTRL ID='controller_1', FUNCTION_TYPE='CUSTOM', INPUT_ID='clock 1', RAMP_ID='ramp 1', LATCH=.FALSE. /
&RAMP ID='ramp 1', T= 0.00, F= 1. /
&RAMP ID='ramp 1', T= 0.019, F= 1. /
&RAMP ID='ramp 1', T= 0.021, F=-1. /

&OBST XB= -10,10,0.0,10.0,0.0,40.0, SURF_ID='BETONWAND' /
&OBST XB= -64.8,64.8,-52.0,20.0,0.,0.2, COLOR='SILVER' /


&VENT MB='XMIN', SURF_ID='OPEN' /
&VENT MB='XMAX', SURF_ID='OPEN' /
&VENT MB='YMIN', SURF_ID='OPEN' /
&VENT MB='YMAX', SURF_ID='OPEN' /
&VENT MB='ZMAX', SURF_ID='OPEN' /

&SLCF PBY=-0.2, QUANTITY='TEMPERATURE' /
&SLCF PBX=0.0, QUANTITY='TEMPERATURE' /

&SLCF PBY=-0.2, QUANTITY='VELOCITY', VECTOR=.TRUE./
&SLCF PBX=0.0, QUANTITY='VELOCITY', VECTOR=.TRUE. /

&BNDF QUANTITY='WALL TEMPERATURE' /
&BNDF QUANTITY='NET HEAT FLUX' /

&TAIL /


